/*--------------------------------*- C++ -*----------------------------------*\
| =========                 |                                                 |
| \\      /  F ield         | OpenFOAM: The Open Source CFD Toolbox           |
|  \\    /   O peration     | Version:  2.2.0                                 |
|   \\  /    A nd           | Web:      www.OpenFOAM.org                      |
|    \\/     M anipulation  |                                                 |
\*---------------------------------------------------------------------------*/
FoamFile
{
    version     2.0;
    format      ascii;
    class       dictionary;
    location    "system";
    object      fvSolution;
}
// * * * * * * * * * * * * * * * * * * * * * * * * * * * * * * * * * * * * * //

solvers
{
    C_species
    {
        solver          PBiCG;//PBiCGStab;//
        preconditioner  DILU;
        tolerance       1e-09;
        relTol          0;//0.5;
    }

    fi
    {
        solver          PCG;
        preconditioner  DIC;
        tolerance       1e-12;
        relTol          0.5;//0.01;//0.5;
    }
}

SIMPLE
{
    nNonOrthogonalCorrectors 0;

    residualControl
    {
        "C_.*"            1e-5;      
	fi                1e-4; 
    }
    
}

relaxationFactors 
{ 
    equations 
    { 	
        relax_init		0.3;//0.001;//0.01;// initial relaxaction for convergence
	relax_end		0.9; //0.7;//0.9; //0.9 is more stable but 0.95 more convergent
	switch_iter		10; // number of iteration in which the relaxation switch 
    } 
    fields
    { 	
        fi			0.3;
    } 
   
} 

// ************************************************************************* //
