/*--------------------------------*- C++ -*----------------------------------*\
| =========                 |                                                 |
| \\      /  F ield         | OpenFOAM: The Open Source CFD Toolbox           |
|  \\    /   O peration     | Version:  1.5                                   |
|   \\  /    A nd           | Web:      http://www.OpenFOAM.org               |
|    \\/     M anipulation  |                                                 |
\*---------------------------------------------------------------------------*/
FoamFile
{
    version     2.0;
    format      ascii;
    class       dictionary;
    object      transportProperties;
}
// * * * * * * * * * * * * * * * * * * * * * * * * * * * * * * * * * * * * * //


kf		dimensions [-1 -3 3 0 0 2 0] 1.0; // S/m == A/V/m == A^2s^3/kg/m^3  // To start the simulation, unimportant for t > 0

Sct             Sct [0 0 0 0 0 0 0] 0.5;

F		F [0 0 1 0 -1 1 0] 96485; //Cb/mol

nu_e	-2;

nu_OH	2;

nu_k 	2;

nu_e_c	2;

nu_k_c	-2;


bc_H2	-0.1134;//-0.04662;// V

j0_H2	5.8156;//;//-1.1e-1; // A/m2

E0_H2	-1.226;// //  V


ba_Ni	0.04989;//0.0513597139;//  V

bc_Ni	-0.01768;//-0.0513597139;//  V

j0_Ni	0.01631;//10;//  A/m2

E0	0.0; // V


ba_O2	0.1197;//0.037839;//  V

j0_O2	0.04473;//0.01; //  A/m2

E0_O2	0.3015;//0.5; //  V

C_OHinf	     9.5; //  mol/m3 100

C_Nainf	     19.5;//409.5;//

C_SO4inf     5;// 200;//

// ************************************************************************* //
